** written by FreeCAD inp file writer for CalculiX,Abaqus meshes
** highest dimension mesh elements only.

** Nodes
*Node, NSET=Nall
1, -7.08087682724, 4.05939912796, 2.628201007843
2, -7.847014904022, -4.512721538544, 3.407018184662
3, -6.443078517914, -3.514016151428, 3.414401292801
4, -5.495606899261, -2.170355558395, 3.271907806396
5, -5.038571357727, -0.6198604106903, 3.27880859375
6, -5.094932079315, 0.9696951508522, 3.296936511993
7, -5.805288314819, 2.721101760864, 3.185507059097
8, -6.619695186615, 3.684228420258, 3.917627334595
9, -7.924686908722, 4.548964500427, 3.783983230591
10, -8.317225456238, -4.708319187164, 1.805183768272
11, -6.818140983582, -3.856912136078, 1.669235467911
12, -5.734673023224, -2.609019756317, 1.591163396835
13, -5.137391090393, -1.164058566093, 1.634409785271
14, -5.01656627655, 0.4066810011864, 1.635067224503
15, -5.41265296936, 1.989031672478, 1.574247956276
16, -6.345587253571, 3.412516117096, 1.420672059059
17, -7.607948303223, 4.390682220459, 1.261323690414
18, -8.99072933197, 4.897078037262, 1.139331221581
19, -8.554717063904, 4.786560058594, 2.4637196064
20, 7.08251619339, 4.060577392578, 2.506053209305
** ... 1173 like lines cut


** Volume elements
*Element, TYPE=C3D4, ELSET=Eall
5594, 323, 434, 431, 404
5595, 770, 771, 821, 184
5596, 651, 210, 649, 650
5597, 499, 374, 375, 286
5598, 499, 374, 306, 375
5599, 617, 588, 613, 567
5600, 482, 366, 481, 593
5601, 392, 394, 401, 292
5602, 499, 374, 501, 306
5603, 68, 98, 682, 76
5604, 483, 975, 364, 594
5605, 704, 703, 1191, 739
5606, 12, 13, 4, 804
5607, 1070, 1030, 1029, 1071
5608, 830, 448, 445, 828
5609, 483, 975, 484, 364
5610, 234, 952, 951, 950
5611, 704, 1191, 104, 739
5612, 830, 448, 446, 445
5613, 24, 135, 796, 20
** ... 3367 like lines cut

** Define element set Eall
*ELSET, ELSET=Eall
Eall



***********************************************************
** Element sets for materials and FEM element type (solid, shell, beam, fluid)
*ELSET,ELSET=MaterialSolidSolid
Eall

***********************************************************
** constraints fixed node sets
** ConstraintFixed
*NSET,NSET=ConstraintFixed
1033,
1034,
1035,
1036,
1037,
1038,
1039,
1040,
1041,
1042,
1043,
1044,
1127,
1128,
1147,
1148,
1149,
1150,
1151,

** Physical constants for SI(mm) unit system with Kelvins
*PHYSICAL CONSTANTS, ABSOLUTE ZERO=0, STEFAN BOLTZMANN=5.670374419e-11

***********************************************************
** Materials
** see information about units at file end
** FreeCAD material name: CalculiX-Steel
** MaterialSolid
*MATERIAL, NAME=MaterialSolid
*ELASTIC
210000,0.3

***********************************************************
** Sections
*SOLID SECTION, ELSET=MaterialSolidSolid, MATERIAL=MaterialSolid

***********************************************************
** At least one step is needed to run an CalculiX analysis of FreeCAD
*STEP, INC=2000
*STATIC, DIRECT


***********************************************************
** Fixed Constraints
** ConstraintFixed
*BOUNDARY
ConstraintFixed,1
ConstraintFixed,2
ConstraintFixed,3


***********************************************************
** constraints force node loads
*CLOAD
** ConstraintForce
** node loads on shape: Mesh001_solid:Face44
1016,2,-0.4236952053176
1022,2,-0.8406382958094
1023,2,-1.264333501127
1137,2,-1.688028706445
1140,2,-0.8473904106352

** node loads on shape: Mesh001_solid:Face50
1013,2,-1.26770955854
1016,2,-0.8473904106352
1022,2,-0.4203191479047
1136,2,-0.8406382958094
1137,2,-1.688028706445

** node loads on shape: Mesh001_solid:Face51
1012,2,-0.4059193271399
1013,2,-0.8586112516456
1016,2,-1.264530578785
1115,2,-0.8118386542797
1135,2,-1.670449905925

** node loads on shape: Mesh001_solid:Face54
1010,2,-1.761274271541
1012,2,-0.855979295969
1013,2,-0.9052949755722
1135,2,-1.761274271541

** node loads on shape: Mesh001_solid:Face53
1010,2,-0.9119051127964
1011,2,-0.394705198076
1012,2,-1.306610310872
1114,2,-0.7894103961521
1134,2,-1.701315508948

** node loads on shape: Mesh001_solid:Face56
1008,2,-1.610491143333
1010,2,-0.8632232528263
1011,2,-0.7472678905063
1134,2,-1.610491143333

** node loads on shape: Mesh001_solid:Face55
1008,2,-0.8697701684634
1009,2,-0.7651361632347
1011,2,-1.634906331698
1132,2,-1.634906331698

** node loads on shape: Mesh001_solid:Face59
1005,2,-1.634906331698
1008,2,-0.8697701684634
1009,2,-0.7651361632347
1132,2,-1.634906331698

** node loads on shape: Mesh001_solid:Face58
1005,2,-0.8438959333632
1007,2,-0.7947369469537
1009,2,-1.638632880317
1133,2,-1.638632880317

** node loads on shape: Mesh001_solid:Face57
1005,2,-0.8438959333632
1006,2,-1.638632880317
1007,2,-0.7947369469537
1133,2,-1.638632880317



***********************************************************
** Outputs --> frd file
*NODE FILE
U
*EL FILE
S, E
** outputs --> dat file
** reaction forces for Constraint fixed
*NODE PRINT, NSET=ConstraintFixed, TOTALS=ONLY
RF

*OUTPUT, FREQUENCY=1
***********************************************************
*END STEP

***********************************************************
** CalculiX Input file
**   written by    --> FreeCAD 1.0.0
**   written on    --> Thu Mar 27 17:15:58 2025
**   file name     -->
**   analysis name --> Analysis
**
**
***********************************************************
**  About units:
**  See ccx manual, ccx does not know about any unit.
**  Golden rule: The user must make sure that the numbers they provide have consistent units.
**  The user is the FreeCAD calculix writer module ;-)
**
**  The unit system which is used at Guido Dhondt's company: mm, N, s, K
**  Since Length and Mass are connected by Force, if Length is mm the Mass is in t to get N
**  The following units are used to write to inp file:
**
**  Length: mm (this includes the mesh geometry)
**  Mass: t
**  TimeSpan: s
**  Temperature: K
**
**  This leads to:
**  Force: N
**  Pressure: N/mm^2 == MPa (Young's Modulus has unit Pressure)
**  Density: t/mm^3
**  Gravity: mm/s^2
**  Thermal conductivity: t*mm/K/s^3 == as W/m/K == kW/mm/K
**  Specific Heat: mm^2/s^2/K = J/kg/K == kJ/t/K
**
