*Heading
** Job name: RUC_simple_Sensor_VUAMP Model name: Model-1
** Generated by: Abaqus/CAE 2022
*Preprint, echo=NO, model=NO, history=NO, contact=NO
**
** PARTS
**
*Part, name=Part-1
*Node
      1,           0., 0.00322349486, 0.00298325671
      2,           0., 0.00322349486, 0.00558325648
      3,           0., 0.00582349487, 0.00558325648
      4, 0.00260000001, 0.00322349486, 0.00558325648
      5, 0.00260000001, 0.00322349486, 0.00298325671
      6, 0.00260000001, 0.00582349487, 0.00558325648
      7,           0., 0.000623494736, 0.00558325648
      8, 0.00260000001, 0.000623494736, 0.00558325648
      9,           0., 0.00322349486, 0.00818325672
     10, 0.00260000001, 0.00322349486, 0.00818325672
     11, 0.00260000001,           0., 0.00856651366
     12, 0.00260000001, 0.00260000001,  0.011166513
     13, 0.00260000001,           0.,  0.011166513
     14, 7.07805169e-12, 0.00260000001,  0.011166513
     15, 7.07805169e-12,           0., 0.00856651366
     16, 7.07805169e-12,           0.,  0.011166513
     17, 0.00260000001, 0.00384698948,  0.011166513
     18, 0.00260000001, 0.00644698972, 0.00856651366
     19, 0.00260000001, 0.00644698972,  0.011166513
     20, 7.07805169e-12, 0.00644698972, 0.00856651366
** ... 3336 like lines cut
*Element, type=C3D8R
  1,   35,    1,   53,  357,  450,   58,  433, 1061
  2,  378,  358,  381,  379, 1082, 1062, 1085, 1083
  3,   45,  364,  377,   46,  425, 1068, 1081,  426
  4,  367,  372,  382,  366, 1071, 1076, 1086, 1070
  5,  377,  364,  360,  383, 1081, 1068, 1064, 1087
  6,  372,  367,  385,  371, 1076, 1071, 1089, 1075
  7,  374,   37,    2,   36, 1078,  415,   55,  449
  8,  358,  373,  361,  381, 1062, 1077, 1065, 1085
  9,  365,   43,   42,  362, 1069,  423,  422, 1066
 10,   38,  368,   39,    3,  416, 1072,  419,   56
 11,   39,  368,  376,   40,  419, 1072, 1080,  420
 12,  362,   42,   41,  359, 1066,  422,  421, 1063
 13,   44,  360,  364,   45,  424, 1064, 1068,  425
 14,  382,  369,  363,  373, 1086, 1073, 1067, 1077
 15,  381,  361,   50,   49, 1085, 1065,  430,  429
 16,   51,  380,  363,   52,  431, 1084, 1067,  432
 17,   52,  363,  357,   53,  432, 1067, 1061,  433
 18,  384,  370,  375,  371, 1088, 1074, 1079, 1075
 19,  377,  383,  358,  378, 1081, 1087, 1062, 1082
 20,  370,  384,  376,  368, 1074, 1088, 1080, 1072
** ... 2374 like lines cut
*Nset, nset=setx0
    1,    2,    3,    7,    9,   14,   15,   16,   20,   21,   22,   23,   24,   25,   32,   33
   34,   35,   36,   37,   38,   39,   40,   41,   42,   43,   44,   45,   46,   47,   48,   49
   50,   51,   52,   53,   79,   80,   81,   82,   83,   84,   85,   86,   87,   88,   89,   90
   91,   92,   93,   94,   95,  115,  116,  117,  118,  119,  120,  121,  122,  123,  124,  125
  126,  127,  128,  129,  130,  131,  151,  152,  153,  154,  155,  156,  157,  158,  159,  160
  161,  162,  163,  164,  165,  206,  207,  208,  209,  210,  211,  212,  213,  214,  215,  216
  217,  218,  219,  220,  221,  222,  223,  224,  250,  251,  252,  253,  254,  255,  256,  257
  258,  259,  260,  261,  262,  263,  264,  265,  266,  267,  268,  269,  270,  271,  272,  273
  274,  275,  276,  277,  278,  279,  280,  281,  282,  283,  284,  285,  286,  287,  338,  339
  340,  341,  342,  343,  344,  345,  346,  347,  348,  349,  350,  351,  352,  353,  354,  355
  356,  357,  358,  359,  360,  361,  362,  363,  364,  365,  366,  367,  368,  369,  370,  371
  372,  373,  374,  375,  376,  377,  378,  379,  380,  381,  382,  383,  384,  385,  453,  454
  455,  456,  457,  458,  459,  460,  461,  462,  463,  464,  465,  466,  467,  468,  469,  470
  471,  472,  473,  529,  530,  531,  532,  533,  534,  535,  536,  537,  538,  539,  540,  541
  542,  543,  544,  545,  546,  547,  548,  549,  550,  551,  552,  553,  554,  615,  616,  617
  618,  619,  620,  621,  622,  623,  624,  625,  626,  627,  628,  629,  630,  631,  632,  633
  634,  635,  636,  637,  638,  720,  721,  722,  723,  724,  725,  726,  727,  728,  729,  730
  731,  732,  733,  734,  735,  736,  737,  738,  739,  740,  741,  742,  743,  744,  745,  746
  813,  814,  815,  816,  817,  818,  819,  820,  821,  822,  823,  824,  825,  826,  827,  828
  829,  830,  831,  832,  833,  834,  835,  836,  837,  838,  839,  840,  879,  880,  881,  882
** ... 33 like lines cut
*Elset, elset=setx0
    1,    2,    3,    4,    5,    6,    7,    8,    9,   10,   11,   12,   13,   14,   15,   16
   17,   18,   19,   20,   21,   22,   23,   24,   25,   26,   27,   28,   29,   30,   31,   32
   33,   34,   35,   36,   37,   38,   39,  118,  119,  120,  121,  122,  123,  124,  125,  126
  127,  128,  129,  130,  131,  132,  133,  134,  135,  136,  137,  138,  139,  140,  141,  142
  143,  144,  145,  146,  147,  148,  211,  212,  213,  214,  215,  216,  217,  218,  219,  220
  221,  222,  223,  224,  225,  226,  227,  228,  229,  230,  231,  232,  233,  234,  235,  236
  237,  238,  239,  240,  241,  242,  243,  244,  245,  246,  319,  320,  321,  322,  323,  324
  325,  326,  327,  328,  329,  330,  331,  332,  333,  334,  335,  336,  337,  338,  339,  340
  341,  342,  343,  344,  345,  346,  347,  348,  349,  350,  351,  352,  495,  496,  497,  498
  499,  500,  501,  502,  503,  504,  505,  506,  507,  508,  509,  510,  511,  512,  513,  514
  515,  516,  517,  518,  519,  520,  521,  522,  523,  524,  525,  526,  527,  528,  529,  530
  531,  608,  609,  610,  611,  612,  613,  614,  615,  616,  617,  618,  619,  620,  621,  622
  623,  624,  625,  626,  627,  628,  629,  630,  631,  632,  633,  634,  635,  636,  637,  638
  639,  640,  641,  642,  643,  644,  645,  646,  647,  648,  649,  650,  651,  652,  653,  654
  655,  656,  657,  658,  659,  660,  661,  662,  663,  664,  665,  666,  667,  668,  669,  670
  671,  672,  673,  674,  675,  676,  677,  678,  679,  826,  827,  828,  829,  830,  831,  832
  833,  834,  835,  836,  837,  838,  839,  840,  841,  842,  843,  844,  845,  846,  847,  848
  849,  850,  851,  852,  853,  854,  855,  856,  857,  858,  859,  860,  861,  862,  863,  864
  865,  866,  867,  868,  869,  870,  871,  872,  873,  874,  875,  876,  877,  878,  879,  880
  881,  882,  883,  884,  885,  886,  887,  888,  889,  890,  891,  892,  893,  894,  895,  896
** ... 30 like lines cut
*Nset, nset=setx1
    4,    5,    6,    8,   10,   11,   12,   13,   17,   18,   19,   26,   27,   28,   29,   30
   31,   60,   61,   62,   63,   64,   65,   66,   67,   68,   69,   70,   71,   72,   73,   74
   75,   76,   77,   78,   98,   99,  100,  101,  102,  103,  104,  105,  106,  107,  108,  109
  110,  111,  112,  113,  114,  134,  135,  136,  137,  138,  139,  140,  141,  142,  143,  144
  145,  146,  147,  148,  149,  150,  166,  167,  168,  169,  170,  171,  172,  173,  174,  175
  176,  177,  178,  179,  180,  181,  182,  183,  184,  185,  186,  187,  188,  189,  190,  191
  192,  193,  194,  195,  196,  197,  198,  199,  225,  226,  227,  228,  229,  230,  231,  232
  233,  234,  235,  236,  237,  238,  239,  240,  241,  242,  243,  294,  295,  296,  297,  298
  299,  300,  301,  302,  303,  304,  305,  306,  307,  308,  309,  310,  311,  312,  313,  314
  315,  316,  317,  318,  319,  320,  321,  322,  323,  324,  325,  326,  327,  328,  329,  330
  331,  386,  387,  388,  389,  390,  391,  392,  393,  394,  395,  396,  397,  398,  399,  400
  401,  402,  403,  404,  405,  406,  407,  408,  409,  410,  411,  412,  413,  414,  474,  475
  476,  477,  478,  479,  480,  481,  482,  483,  484,  485,  486,  487,  488,  489,  490,  491
  492,  493,  494,  555,  556,  557,  558,  559,  560,  561,  562,  563,  564,  565,  566,  567
  568,  569,  570,  571,  572,  573,  574,  575,  576,  577,  578,  579,  580,  639,  640,  641
  642,  643,  644,  645,  646,  647,  648,  649,  650,  651,  652,  653,  654,  655,  656,  657
  658,  659,  660,  661,  662,  693,  694,  695,  696,  697,  698,  699,  700,  701,  702,  703
  704,  705,  706,  707,  708,  709,  710,  711,  712,  713,  714,  715,  716,  717,  718,  719
  785,  786,  787,  788,  789,  790,  791,  792,  793,  794,  795,  796,  797,  798,  799,  800
  801,  802,  803,  804,  805,  806,  807,  808,  809,  810,  811,  812,  903,  904,  905,  906
** ... 33 like lines cut
*Elset, elset=setx1
   79,   80,   81,   82,   83,   84,   85,   86,   87,   88,   89,   90,   91,   92,   93,   94
   95,   96,   97,   98,   99,  100,  101,  102,  103,  104,  105,  106,  107,  108,  109,  110
  111,  112,  113,  114,  115,  116,  117,  180,  181,  182,  183,  184,  185,  186,  187,  188
  189,  190,  191,  192,  193,  194,  195,  196,  197,  198,  199,  200,  201,  202,  203,  204
  205,  206,  207,  208,  209,  210,  283,  284,  285,  286,  287,  288,  289,  290,  291,  292
  293,  294,  295,  296,  297,  298,  299,  300,  301,  302,  303,  304,  305,  306,  307,  308
  309,  310,  311,  312,  313,  314,  315,  316,  317,  318,  387,  388,  389,  390,  391,  392
  393,  394,  395,  396,  397,  398,  399,  400,  401,  402,  403,  404,  405,  406,  407,  408
  409,  410,  411,  412,  413,  414,  415,  416,  417,  418,  419,  420,  421,  422,  423,  424
  425,  426,  427,  428,  429,  430,  431,  432,  433,  434,  435,  436,  437,  438,  439,  440
  441,  442,  443,  444,  445,  446,  447,  448,  449,  450,  451,  452,  453,  454,  455,  456
  457,  532,  533,  534,  535,  536,  537,  538,  539,  540,  541,  542,  543,  544,  545,  546
  547,  548,  549,  550,  551,  552,  553,  554,  555,  556,  557,  558,  559,  560,  561,  562
  563,  564,  565,  566,  567,  568,  569,  714,  715,  716,  717,  718,  719,  720,  721,  722
  723,  724,  725,  726,  727,  728,  729,  730,  731,  732,  733,  734,  735,  736,  737,  738
  739,  740,  741,  742,  743,  744,  745,  746,  747,  748,  749,  750,  751,  752,  753,  754
  755,  756,  757,  758,  759,  760,  761,  762,  763,  764,  765,  766,  767,  768,  769,  770
  771,  772,  773,  774,  775,  776,  777,  778,  779,  780,  781,  782,  783,  784,  785,  786
 1125, 1126, 1127, 1128, 1129, 1130, 1131, 1132, 1133, 1134, 1135, 1136, 1137, 1138, 1139, 1140
 1141, 1142, 1143, 1144, 1145, 1146, 1147, 1148, 1149, 1150, 1151, 1152, 1153, 1154, 1155, 1156
** ... 30 like lines cut
*Nset, nset=sety0
   11,   13,   15,   16,   30,   31,   32,   34,  198,  199,  202,  203,  204,  205,  221,  222
  328,  329,  332,  333,  334,  335,  355,  356,  751,  752,  753,  754, 1023, 1024, 1025, 1026
 1913, 1914, 1915, 1916, 1917, 1918, 1919, 1920, 1921, 1922, 1923, 1924, 1925, 1926, 1927, 1928
 1929, 1930, 1931, 1932, 1933, 1934, 2131, 2132, 2133, 2134, 2135, 2136, 2137, 2138, 2139, 2140
 2141, 2142, 2143, 2144, 2145, 2146, 2147, 2148, 2149, 2150, 2151, 2152, 2198, 2199, 2200, 2201
 2202, 2203, 2204, 2205, 2206, 2207, 2208, 2210, 2211, 2213, 2214, 2215, 2216, 2217, 2218, 2219
 2220, 2221, 2222, 2223, 2225, 2226, 2227, 2228, 2229, 2230, 2231, 2232, 2233, 2234, 2235, 2238
 2239, 2240, 2241, 2242, 2243, 2244, 2245, 2246, 2247, 2248, 2253, 2254
*Elset, elset=sety0
  421,  434,  450,  458,  471,  487,  495,  508,  524,  760,  761,  776,  799,  800,  815,  838
  839,  854, 1672, 1673, 1675, 1676, 1677, 1678, 1679, 1680, 1681, 1682, 1696, 1703, 1797, 1798
 1800, 1801, 1802, 1803, 1804, 1805, 1806, 1807, 1821, 1828, 1922, 1923, 1925, 1926, 1927, 1928
 1929, 1930, 1931, 1932, 1946, 1953, 2023, 2024, 2025, 2026, 2027, 2042, 2048, 2052, 2056, 2064
 2070, 2079, 2149, 2150, 2151, 2152, 2153, 2168, 2174, 2178, 2182, 2190, 2196, 2205, 2275, 2276
 2277, 2278, 2279, 2294, 2300, 2304, 2308, 2316, 2322, 2331
*Nset, nset=sety1
   18,   19,   20,   22,   24,   25,   26,   28,  240,  241,  244,  245,  246,  247,  267,  268
  284,  285,  288,  289,  290,  291,  311,  312,  841,  842,  843,  844,  927,  928,  929,  930
 1695, 1696, 1697, 1698, 1699, 1700, 1701, 1702, 1703, 1704, 1705, 1706, 1707, 1708, 1709, 1710
 1711, 1712, 1713, 1714, 1715, 1716, 2161, 2162, 2163, 2164, 2165, 2166, 2167, 2168, 2169, 2170
 2171, 2185, 2186, 2187, 2188, 2189, 2190, 2191, 2192, 2193, 2194, 2195, 2250, 2256, 2269, 2270
 2271, 2272, 2273, 2274, 2275, 2276, 2277, 2278, 2279, 2281, 2282, 2297, 2298, 2299, 2300, 2301
 2302, 2303, 2304, 2305, 2306, 2307, 2539, 2540, 2541, 2542, 2543, 2544, 2545, 2546, 2547, 2548
 2549, 2550, 2551, 2552, 2553, 2554, 2555, 2556, 2557, 2558, 2559, 2560
*Elset, elset=sety1
  544,  545,  560,  582,  583,  598,  620,  621,  636,  657,  658,  669,  691,  692,  703,  725
  726,  737,  894,  895,  897,  898,  899,  900,  901,  902,  903,  904,  918,  925, 1024, 1025
 1027, 1028, 1029, 1030, 1031, 1032, 1033, 1034, 1048, 1055, 1154, 1155, 1157, 1158, 1159, 1160
 1161, 1162, 1163, 1164, 1178, 1185, 1263, 1277, 1278, 1286, 1287, 1291, 1292, 1293, 1308, 1309
 1316, 1317, 1392, 1406, 1407, 1415, 1416, 1420, 1421, 1422, 1437, 1438, 1445, 1446, 1521, 1535
 1536, 1544, 1545, 1549, 1550, 1551, 1566, 1567, 1574, 1575
*Nset, nset=setz0
   23,   25,   27,   28,   29,   31,   33,   34,  286,  287,  290,  291,  292,  293,  309,  310
  330,  331,  334,  335,  336,  337,  353,  354,  931,  932,  933,  934, 1027, 1028, 1029, 1030
 1909, 1910, 2209, 2212, 2249, 2255, 2280, 2283, 2284, 2296, 2561, 2562
*Elset, elset=setz0
  658,  668,  676,  692,  702,  710,  726,  736,  744,  748,  761,  779,  787,  800,  818,  826
  839,  857,  905,  913, 1035, 1043, 1165, 1173, 1683, 1692, 1808, 1817, 1933, 1942
*Nset, nset=setz1
   12,   13,   14,   16,   17,   19,   21,   22,  196,  197,  200,  201,  202,  203,  223,  224
  242,  243,  246,  247,  248,  249,  265,  266,  747,  748,  749,  750,  845,  846,  847,  848
 1693, 1694, 2129, 2130, 2160, 2172, 2173, 2196, 2236, 2237, 2251, 2252
*Elset, elset=setz1
  432,  434,  449,  469,  471,  486,  506,  508,  523,  545,  564,  567,  583,  602,  605,  621
  640,  643, 1268, 1348, 1397, 1477, 1526, 1606, 2057, 2065, 2183, 2191, 2309, 2317
*Nset, nset=setFiber, generate
    1,  1476,     1
*Elset, elset=setFiber, generate
   1,  864,    1
*Nset, nset=setMatrix
    1,    3,    5,    6,    7,    8,    9,   10,   11,   12,   14,   15,   17,   18,   20,   21
   23,   24,   26,   27,   29,   30,   32,   33,   39,   40,   41,   42,   43,   44,   45,   46
   47,   48,   49,   50,   51,   52,   53,   56,   57,   58,   59,   62,   63,   64,   65,   66
   67,   68,   69,   70,   71,   72,   73,   74,   75,   76,   79,   80,   81,   82,   83,   84
   85,   86,   87,   88,   89,   90,   91,   92,   93,   96,   97,  100,  101,  102,  103,  104
  105,  106,  107,  108,  109,  110,  111,  112,  113,  114,  117,  118,  119,  120,  121,  122
  123,  124,  125,  126,  127,  128,  129,  130,  131,  132,  133,  136,  137,  138,  139,  140
  141,  142,  143,  144,  145,  146,  147,  148,  149,  150,  151,  152,  153,  154,  155,  156
  157,  158,  159,  160,  161,  162,  163,  164,  165,  166,  167,  168,  169,  170,  171,  172
  173,  174,  175,  176,  177,  178,  179,  180,  181,  182,  183,  184,  185,  186,  187,  188
  189,  190,  191,  192,  193,  194,  195,  200,  201,  204,  205,  206,  207,  208,  209,  210
  211,  212,  213,  214,  215,  216,  217,  218,  219,  220,  225,  226,  227,  228,  229,  230
  231,  232,  233,  234,  235,  236,  237,  238,  239,  244,  245,  248,  249,  250,  251,  252
  253,  254,  255,  256,  257,  258,  259,  260,  261,  262,  263,  264,  269,  270,  271,  272
  273,  274,  275,  276,  277,  278,  279,  280,  281,  282,  283,  288,  289,  292,  293,  294
  295,  296,  297,  298,  299,  300,  301,  302,  303,  304,  305,  306,  307,  308,  313,  314
  315,  316,  317,  318,  319,  320,  321,  322,  323,  324,  325,  326,  327,  332,  333,  336
  337,  338,  339,  340,  341,  342,  343,  344,  345,  346,  347,  348,  349,  350,  351,  352
  419,  420,  421,  422,  423,  424,  425,  426,  427,  428,  429,  430,  431,  432,  433,  434
  435,  436,  437,  438,  439,  440,  441,  442,  443,  444,  445,  446,  447,  448,  495,  496
** ... 131 like lines cut
*Elset, elset=setMatrix, generate
  865,  2394,     1
*Orientation, name=Ori-1
          1.,           0.,           0.,           0.,           1.,           0.
3, 0.
** Section: sectionFiber
*Solid Section, elset=setFiber, orientation=Ori-1, controls=EC-1, material=materialFiber
,
** Section: sectionMatrix
*Solid Section, elset=setMatrix, controls=EC-1, material=materialMatrix
,
*End Part
**  
**
** ASSEMBLY
**
*Assembly, name=Assembly
**  
*Instance, name=Part-1-1, part=Part-1
*End Instance
**  
*Node
      1, 0.00260000001,           0.,           0.
*Node
      2,           0., 0.00644698972,           0.
*Node
      3,           0.,           0.,  0.011166513
*Nset, nset=setrpx
 1,
*Nset, nset=setrpy
 2,
*Nset, nset=setrpz
 3,
** Constraint: Constraint-X1
*Equation
2
Part-1-1.setx1, 1, 1.
setrpx, 1, -1.
** Constraint: Constraint-Y1
*Equation
2
Part-1-1.sety1, 2, 1.
setrpy, 2, -1.
** Constraint: Constraint-Z1
*Equation
2
Part-1-1.setz1, 3, 1.
setrpz, 3, -1.
*End Assembly
** 
** ELEMENT CONTROLS
** 
*Section Controls, name=EC-1, hourglass=ENHANCED
1., 1., 1.
*Amplitude, name=amp_11, definition=USER, variables=1
*Amplitude, name=amp_22, definition=USER, variables=1
*Amplitude, name=amp_33, definition=USER, variables=1
** 
** MATERIALS
** 
*Material, name=materialFiber
*Density
 1.5e-09,
*Elastic, type=ENGINEERING CONSTANTS
264534.,  13731.2,  13731.2, 0.282545, 0.282545, 0.304869,  48323.6,  48323.6
  5261.53,
*Material, name=materialMatrix
*Density
 1.5e-09,
*Elastic
4670., 0.37
*Plastic
 24.8004,       0.
 24.9638,  4.3e-05
 25.1441,  8.5e-05
 25.3241, 0.000128
  25.504,  0.00017
 25.6836, 0.000213
 25.8629, 0.000255
  26.042, 0.000298
 26.2209, 0.000341
 26.3995, 0.000383
 26.5779, 0.000426
 26.7561, 0.000468
  26.934, 0.000511
 27.1117, 0.000554
 27.2891, 0.000596
 27.4663, 0.000639
 27.6433, 0.000681
   27.82, 0.000724
 27.9965, 0.000767
 28.1727, 0.000809
** ... 9854 like lines cut
*Time Points, name=TimePoints-1
0.25, 0.5, 0.75, 1.
** 
** BOUNDARY CONDITIONS
** 
** Name: BC-X0 Type: Displacement/Rotation
*Boundary
Part-1-1.setx0, 1, 1
** Name: BC-Y0 Type: Displacement/Rotation
*Boundary
Part-1-1.sety0, 2, 2
** Name: BC-Z0 Type: Displacement/Rotation
*Boundary
Part-1-1.setz0, 3, 3
** ----------------------------------------------------------------
** 
** STEP: Step-1
** 
*Step, name=Step-1, nlgeom=YES
*Dynamic, Explicit
, 1.
*Bulk Viscosity
0.06, 1.2
** Mass Scaling: Semi-Automatic
**               Whole Model
*Variable Mass Scaling, dt=1e-05, type=below min, frequency=10
** 
** BOUNDARY CONDITIONS
** 
** Name: BC-1 Type: Displacement/Rotation
*Boundary, amplitude=amp_11
setrpx, 1, 1, 1.
** Name: BC-2 Type: Displacement/Rotation
*Boundary, amplitude=amp_22
setrpy, 2, 2, 1.
** Name: BC-3 Type: Displacement/Rotation
*Boundary, amplitude=amp_33
setrpz, 3, 3, 1.
** 
** OUTPUT REQUESTS
** 
*Restart, write, number interval=1, time marks=NO
** 
** FIELD OUTPUT: F-Output-1
** 
*Output, field, time points=TimePoints-1
*Node Output
U, 
*Element Output, directions=YES
E, MISESMAX, S
** 
** HISTORY OUTPUT: SENSOR_11
** 
*Output, history, sensor, name=SENSOR_11, frequency=1
*Node Output, nset=setrpx
RF1, 
** 
** HISTORY OUTPUT: SENSOR_22
** 
*Output, history, sensor, name=SENSOR_22, frequency=1
*Node Output, nset=setrpy
RF2, 
** 
** HISTORY OUTPUT: SENSOR_33
** 
*Output, history, sensor, name=SENSOR_33, frequency=1
*Node Output, nset=setrpz
RF3, 
** 
** HISTORY OUTPUT: H-Output-1
** 
*Output, history, time interval=0.002
*Node Output, nset=setrpx
RF1, RF2, RF3, U1, U2, U3
** 
** HISTORY OUTPUT: H-Output-2
** 
*Node Output, nset=setrpy
RF1, RF2, RF3, U1, U2, U3
** 
** HISTORY OUTPUT: H-Output-3
** 
*Node Output, nset=setrpz
RF1, RF2, RF3, U1, U2, U3
*End Step
