*Heading
** Job name: Crossply_meso_100elements Model name: Model-1
** Generated by: Abaqus/CAE 2022
*Preprint, echo=NO, model=NO, history=NO, contact=NO
** ----------------------------------------------------------------
** 
** PART INSTANCE: Inst_Laminate
** 
*Node
      1, -0.914399981, -0.457199991,  0.182879999
      2, -0.914399981,  0.457199991,  0.182879999
      3, -0.914399981,  0.457199991,           0.
      4, -0.914399981, -0.457199991,           0.
      5,  0.914399981,  0.457199991,  0.182879999
      6,  0.914399981,  0.457199991,           0.
      7,  0.914399981, -0.457199991,           0.
      8,  0.914399981, -0.457199991,  0.182879999
      9, -0.914399981,  0.457199991,  0.548640013
     10, -0.914399981, -0.457199991,  0.548640013
     11, -0.914399981, -0.457199991,  0.731519997
     12, -0.914399981,  0.457199991,  0.731519997
     13,  0.914399981, -0.457199991,  0.548640013
     14,  0.914399981, -0.457199991,  0.731519997
     15,  0.914399981,  0.457199991,  0.731519997
     16,  0.914399981,  0.457199991,  0.548640013
     17, -0.914399981, -0.274320006,  0.182879999
     18, -0.914399981, -0.0914399996,  0.182879999
     19, -0.914399981, 0.0914399996,  0.182879999
     20, -0.914399981,  0.274320006,  0.182879999
** ... 160 like lines cut
*Element, type=C3D8R
 1,  40,  85, 101,  33,   1,  17,  24,   4
 2,  85,  86, 102, 101,  17,  18,  23,  24
 3,  86,  87, 103, 102,  18,  19,  22,  23
 4,  87,  88, 104, 103,  19,  20,  21,  22
 5,  88,  45,  44, 104,  20,   2,   3,  21
 6,  39,  89, 105,  34,  40,  85, 101,  33
 7,  89,  90, 106, 105,  85,  86, 102, 101
 8,  90,  91, 107, 106,  86,  87, 103, 102
 9,  91,  92, 108, 107,  87,  88, 104, 103
10,  92,  46,  43, 108,  88,  45,  44, 104
11,  38,  93, 109,  35,  39,  89, 105,  34
12,  93,  94, 110, 109,  89,  90, 106, 105
13,  94,  95, 111, 110,  90,  91, 107, 106
14,  95,  96, 112, 111,  91,  92, 108, 107
15,  96,  47,  42, 112,  92,  46,  43, 108
16,  37,  97, 113,  36,  38,  93, 109,  35
17,  97,  98, 114, 113,  93,  94, 110, 109
18,  98,  99, 115, 114,  94,  95, 111, 110
19,  99, 100, 116, 115,  95,  96, 112, 111
20, 100,  48,  41, 116,  96,  47,  42, 112
** ... 80 like lines cut
*Nset, nset=Inst_Laminate_Set_0_plies
   1,   2,   5,   8,   9,  10,  13,  16,  17,  18,  19,  20,  25,  26,  27,  28
  37,  38,  39,  40,  45,  46,  47,  48,  49,  50,  51,  52,  57,  58,  59,  60
  69,  70,  71,  72,  77,  78,  79,  80,  81,  82,  83,  84,  85,  86,  87,  88
  89,  90,  91,  92,  93,  94,  95,  96,  97,  98,  99, 100, 117, 118, 119, 120
 121, 122, 123, 124, 125, 126, 127, 128, 129, 130, 131, 132, 149, 150, 151, 152
 153, 154, 155, 156, 157, 158, 159, 160, 161, 162, 163, 164, 165, 166, 167, 168
 169, 170, 171, 172, 173, 174, 175, 176, 177, 178, 179, 180
*Elset, elset=Inst_Laminate_Set_0_plies, generate
  51,  100,    1
*Nset, nset=Inst_Laminate_Set_90_plies
   1,   2,   3,   4,   5,   6,   7,   8,   9,  10,  11,  12,  13,  14,  15,  16
  17,  18,  19,  20,  21,  22,  23,  24,  25,  26,  27,  28,  29,  30,  31,  32
  33,  34,  35,  36,  37,  38,  39,  40,  41,  42,  43,  44,  45,  46,  47,  48
  49,  50,  51,  52,  53,  54,  55,  56,  57,  58,  59,  60,  61,  62,  63,  64
  65,  66,  67,  68,  69,  70,  71,  72,  73,  74,  75,  76,  77,  78,  79,  80
  85,  86,  87,  88,  89,  90,  91,  92,  93,  94,  95,  96,  97,  98,  99, 100
 101, 102, 103, 104, 105, 106, 107, 108, 109, 110, 111, 112, 113, 114, 115, 116
 117, 118, 119, 120, 121, 122, 123, 124, 125, 126, 127, 128, 129, 130, 131, 132
 133, 134, 135, 136, 137, 138, 139, 140, 141, 142, 143, 144, 145, 146, 147, 148
*Elset, elset=Inst_Laminate_Set_90_plies, generate
  1,  50,   1
*Nset, nset=Inst_Laminate_Set_ALL, generate
   1,  180,    1
*Elset, elset=Inst_Laminate_Set_ALL, generate
   1,  100,    1
*Orientation, name=Inst_Laminate-Ori-2
1., 0., 0., 0., 1., 0.
3, 90.
** Region: (Sec_LAMINA:Set_ALL), (Controls:EC-1), (Material Orientation:Set_90_plies)
*Elset, elset=Inst_Laminate__I1, generate
  1,  50,   1
** Section: Sec_LAMINA
*Solid Section, elset=Inst_Laminate__I1, orientation=Inst_Laminate-Ori-2, controls=EC-1, material=Mat_LAMINA
,
*Orientation, name=Inst_Laminate-Ori-1
1., 0., 0., 0., 1., 0.
1, 0.
** Region: (Sec_LAMINA:Set_ALL), (Controls:EC-1), (Material Orientation:Set_0_plies)
*Elset, elset=Inst_Laminate__I2, generate
  51,  100,    1
** Section: Sec_LAMINA
*Solid Section, elset=Inst_Laminate__I2, orientation=Inst_Laminate-Ori-1, controls=EC-1, material=Mat_LAMINA
,
*System
*Nset, nset=Set_X0
   1,   2,   3,   4,   9,  10,  11,  12,  17,  18,  19,  20,  21,  22,  23,  24
  49,  50,  51,  52,  53,  54,  55,  56,  81,  82, 149, 150, 151, 152
*Elset, elset=Set_X0
  1,  2,  3,  4,  5, 26, 27, 28, 29, 30, 51, 52, 53, 54, 55, 56
 57, 58, 59, 60
*Nset, nset=Set_X1
   5,   6,   7,   8,  13,  14,  15,  16,  25,  26,  27,  28,  29,  30,  31,  32
  57,  58,  59,  60,  61,  62,  63,  64,  83,  84, 153, 154, 155, 156
*Elset, elset=Set_X1
  21,  22,  23,  24,  25,  46,  47,  48,  49,  50,  91,  92,  93,  94,  95,  96
  97,  98,  99, 100
** 
** ELEMENT CONTROLS
** 
*Section Controls, name=EC-1, hourglass=ENHANCED
1., 1., 1.
*Amplitude, name=Amp_Loading, definition=SMOOTH STEP
             0.,              0.,              2.,              2.
** 
** MATERIALS
** 
*Material, name=Mat_LAMINA
*Density
 1.5e-09,
*Depvar, delete=7
      8,
*User Material, constants=5
160000.,9000.,5700., 0.32, 0.44
** 
** BOUNDARY CONDITIONS
** 
** Name: BC_X0 Type: Displacement/Rotation
*Boundary
Set_X0, 1, 1
** ----------------------------------------------------------------
** 
** STEP: Step_Loading
** 
*Step, name=Step_Loading, nlgeom=YES
*Dynamic, Explicit
, 1.
*Bulk Viscosity
0.06, 1.2
** Mass Scaling: Semi-Automatic
**               Whole Model
*Variable Mass Scaling, dt=1e-05, type=below min, frequency=10
** 
** BOUNDARY CONDITIONS
** 
** Name: BC_X1 Type: Displacement/Rotation
*Boundary, amplitude=Amp_Loading
Set_X1, 1, 1, 0.036576
** 
** OUTPUT REQUESTS
** 
*Restart, write, number interval=1, time marks=NO
** 
** FIELD OUTPUT: F-Output-1
** 
*Output, field
*Node Output
U, 
*Element Output, directions=YES
LE, S, SDV, STATUS
** 
** HISTORY OUTPUT: H-Output-1
** 
*Output, history, variable=PRESELECT
*End Step
